** sch_path: /home/shahid/Sky130Projects/TOP/TB_TOP_MUX_F7_sch.sch
**.subckt TB_TOP_MUX_F7_sch
V1 VSS GND 0
V4 VCTRL_IN VSS 0.6
V6 F_IN VSS pulse(0 1.8 0 100p 100p 50n 100n)
I4 VDD ITAIL 100u
V8 S1 VSS 0
V9 S2 VSS 0
V10 S3 VSS 0
V11 S4 VSS 0
V12 S6 VSS 0
V13 DN_INPUT VSS pulse(0 1.8 10n 100p 100p 500n 1000n)
V14 UP_INPUT VSS pulse(0 1.8 0 100p 100p 500n 1000n)
C1 LF_OFFCHIP VSS 11.27p m=1
R1 LF_OFFCHIP net1 74k m=1
C2 net1 VSS 239p m=1
V16 S5 VSS 0
V17 D0 GND 0
V19 D2 GND 0
V21 D4 GND 0
V29 D12 GND 0
V30 D13 GND 0
V31 D14 GND 0
V33 D16 GND 0
V2 S7 VSS 0
V5 VDD VSS pwl(0 0 0.05US 0 0.050001US 1.8)
V35 D9 GND 0
V37 D11 GND 0
V24 DIV_OUT2 VSS pulse(0 1.8 700n 100p 100p 500n 1000n)
V25 D26G GND 0
V26 D27G GND 0
V27 D17G GND 0
V28 D16G GND 0
x1 VDD_TEST D12 D0 UP_INPUT D13 D1 DN_INPUT VSS D14 D2 PRE_SCALAR UP_OUT D15 D3 F_IN DN_OUT D16 D4 ITAIL DIV_OUT D5 S1 S6 D6
+ VCTRL_IN D7 VCTRL2 S2 D8 S3 OUT D9 OUTB S4 LF_OFFCHIP D10 S5 S7 D11 OUT1 DIV_OUT2 D27G D26G D17G D16G VDD PLL_TOP7
V20 D3 GND 1.8
V18 D1 GND 0
V22 D5 GND 0
V23 D6 GND 0
V32 D15 GND 1.8
V3 VCTRL2 VSS 1.8
V15 VDD_TEST GND 1.8
V36 D10 GND 1.8
V7 D8 GND 0
V34 D7 GND 0
**** begin user architecture code



*.option RSHUNT=1e18
**.option ABSTOL=1e-12
**.option VNTOL=1e-12
**.option CHGTOL=1e-14
**.option RELTOL=1e-5
.option gmin=1e-15
**.option trtol=1
**.OPTION ITL4=500
.control
save x1.UP
+ x1.DN
+ x1.UP1
+ x1.DN1
+ x1.VCTRL_OBV
+ x1.OUT
+ x1.OUTB
+ x1.OUTD
+ x1.IN_DIV
+ x1.OUT11
+ x1.UP_OUT
+ x1.pre_out
+ x1.OUTA1
+ x1.OUTA2
+ x1.OUT1
+ x1.OUT
+ x1.OUTB
+ x1.pre_scalar
+ x1.UP_OUT
+ x1.OUTD
+ x1.OUT01
+ x1.MUFTA2
+ x1.MUFTA
tran 500n 20u

write TB_TOP_MUX_F7_sch.raw
.endc



** opencircuitdesign pdks install
.lib /home/shahid/OSPDKs/sky130A/libs.tech/ngspice/sky130.lib.spice tt


**** end user architecture code
**.ends

* expanding   symbol:  PLL_TOP7.sym # of pins=46
** sym_path: /home/shahid/Sky130Projects/TOP/PLL_TOP7.sym
** sch_path: /home/shahid/Sky130Projects/TOP/PLL_TOP7.sch
.subckt PLL_TOP7 VDD_TEST D12 D0 UP_INPUT D13 D1 DN_INPUT VSS D14 D2 PRE_SCALAR UP_OUT D15 D3 F_IN DN_OUT D16 D4 ITAIL DIV_OUT D5
+ S1 S6 D6 VCTRL_IN D7 VCTRL2 S2 D8 S3 OUT D9 OUTB S4 LF_OFFCHIP D10 S5 S7 D11 OUT1 DIV_OUT2 D27G D26G D17G D16G VDD
*.ipin UP_INPUT
*.ipin DN_INPUT
*.opin UP_OUT
*.opin DN_OUT
*.ipin ITAIL
*.ipin VCTRL2
*.opin OUT
*.iopin OUTB
*.iopin VDD
*.iopin VSS
*.opin PRE_SCALAR
*.ipin F_IN
*.opin DIV_OUT
*.ipin S1
*.ipin S6
*.ipin S2
*.ipin S3
*.ipin VCTRL_IN
*.ipin S4
*.ipin S5
*.ipin LF_OFFCHIP
*.ipin D0
*.ipin D1
*.ipin D2
*.ipin D3
*.ipin D4
*.ipin D5
*.ipin D6
*.ipin D7
*.ipin D8
*.ipin D9
*.ipin D10
*.ipin D11
*.ipin D12
*.ipin D13
*.ipin D14
*.ipin D15
*.ipin D16
*.opin OUT1
*.ipin S7
*.iopin VDD_TEST
*.ipin DIV_OUT2
*.ipin D27G
*.ipin D26G
*.ipin D17G
*.ipin D16G
x25 VDD ITAIL ITAIL_SRC ITAIL_SINK VSS Current_Mirror_Top_s
x18 VDD LD2 D27G Q21 D26G Q22 D11 D10 Q23 Q24 D9 D8 Q25 D7 Q26 Q27 F_IN VSS pre_out P22 7b_divider
x17 VDD LD0 D6 Q01 D5 Q02 D4 D3 Q03 Q04 D2 D1 Q05 D0 Q06 Q07 IN_DIV VSS OUT01 P02 7b_divider
x28 VDD LD1 D17G Q11 D16G Q12 D16 D15 Q13 Q14 D14 D13 Q15 D12 Q16 Q17 OUT_D VSS OUT11 P12 7b_divider
x13 VSS VDD_TEST pre_scalar pre_out Tappered-Buffer_1
x14 VSS VDD_TEST UP_OUT net1 Tappered-Buffer_1
x15 VSS VDD_TEST OUT OUTA1 Tappered-Buffer_1
x19 VSS VDD_TEST OUTB OUTA2 Tappered-Buffer_1
x20 VSS VDD_TEST OUT_D OUTA2 Tappered-Buffer_1
x21 VSS VDD_TEST DN_OUT net2 Tappered-Buffer_1
x22 VSS VDD_TEST DIV_OUT OUT01 Tappered-Buffer_1
x23 VSS VDD_TEST OUT1 OUT11 Tappered-Buffer_1
x2 VDD VSS pre_out F_IN S1 FIN A_MUX
x3 VDD VSS OUT01 DIV_OUT2 S6 FDIV A_MUX
x4 VDD VSS DN1 DN_INPUT S3 DN A_MUX
x5 VDD VSS UP1 UP_INPUT S2 UP A_MUX
x6 VDD VSS MUFTA2 VCTRL_IN S4 VCTRL_OBV A_MUX
x12 VDD VSS MUFTA LF_OFFCHIP S5 MUFTA2 A_MUX
x8 VDD ITAIL_SINK ITAIL_SRC MUFTA2 DN UP VSS CP
x7 VDD VSS VCTRL_OBV VCTRL2 OUTA1 OUTA2 VCO_1
x24 VDD VSS OUT_D F_IN S7 IN_DIV A_MUX
x16 VSS VDD_TEST net1 UP INV_1
x26 VSS VDD_TEST net2 DN INV_1
x1 VDD VSS FIN FDIV UP1 DN1 PFD
C1 MUFTA VSS 11.27p m=1
R1 MUFTA net3 74k m=1
C2 net3 VSS 239p m=1
.ends


* expanding   symbol:  Current_Mirror_Top_s.sym # of pins=5
** sym_path: /home/shahid/Sky130Projects/TOP/Current_Mirror_Top_s.sym
** sch_path: /home/shahid/Sky130Projects/TOP/Current_Mirror_Top_s.sch
.subckt Current_Mirror_Top_s VDD ITAIL ITAIL_SRC ITAIL_SINK VSS
*.ipin ITAIL
*.iopin VDD
*.iopin VSS
*.opin ITAIL_SRC
*.opin ITAIL_SINK
XM5 ITAIL_SINK G_sink_up net7 VSS sky130_fd_pr__nfet_01v8 L=0.5 W=5 nf=1 ad='int((nf+1)/2) * W/nf * 0.29' as='int((nf+2)/2) * W/nf * 0.29'
+ pd='2*int((nf+1)/2) * (W/nf + 0.29)' ps='2*int((nf+2)/2) * (W/nf + 0.29)' nrd='0.29 / W' nrs='0.29 / W' sa=0 sb=0 sd=0 mult=1 m=1
XM6 net7 G_sink_dn VSS VSS sky130_fd_pr__nfet_01v8 L=0.5 W=5 nf=1 ad='int((nf+1)/2) * W/nf * 0.29' as='int((nf+2)/2) * W/nf * 0.29'
+ pd='2*int((nf+1)/2) * (W/nf + 0.29)' ps='2*int((nf+2)/2) * (W/nf + 0.29)' nrd='0.29 / W' nrs='0.29 / W' sa=0 sb=0 sd=0 mult=1 m=1
XM11 G_source_dn G_sink_up net6 VSS sky130_fd_pr__nfet_01v8 L=0.5 W=5 nf=1 ad='int((nf+1)/2) * W/nf * 0.29' as='int((nf+2)/2) * W/nf * 0.29'
+ pd='2*int((nf+1)/2) * (W/nf + 0.29)' ps='2*int((nf+2)/2) * (W/nf + 0.29)' nrd='0.29 / W' nrs='0.29 / W' sa=0 sb=0 sd=0 mult=1 m=1
XM12 net6 G_sink_dn VSS VSS sky130_fd_pr__nfet_01v8 L=0.5 W=5 nf=1 ad='int((nf+1)/2) * W/nf * 0.29' as='int((nf+2)/2) * W/nf * 0.29'
+ pd='2*int((nf+1)/2) * (W/nf + 0.29)' ps='2*int((nf+2)/2) * (W/nf + 0.29)' nrd='0.29 / W' nrs='0.29 / W' sa=0 sb=0 sd=0 mult=1 m=1
XM15 G_sink_up G_sink_up G_sink_dn VSS sky130_fd_pr__nfet_01v8 L=0.5 W=5 nf=1 ad='int((nf+1)/2) * W/nf * 0.29' as='int((nf+2)/2) * W/nf * 0.29'
+ pd='2*int((nf+1)/2) * (W/nf + 0.29)' ps='2*int((nf+2)/2) * (W/nf + 0.29)' nrd='0.29 / W' nrs='0.29 / W' sa=0 sb=0 sd=0 mult=1 m=1
XM16 G_sink_dn G_sink_dn VSS VSS sky130_fd_pr__nfet_01v8 L=0.5 W=5 nf=1 ad='int((nf+1)/2) * W/nf * 0.29' as='int((nf+2)/2) * W/nf * 0.29'
+ pd='2*int((nf+1)/2) * (W/nf + 0.29)' ps='2*int((nf+2)/2) * (W/nf + 0.29)' nrd='0.29 / W' nrs='0.29 / W' sa=0 sb=0 sd=0 mult=1 m=1
XM1 net2 ITAIL net1 VSS sky130_fd_pr__nfet_01v8 L=0.5 W=20 nf=1 ad='int((nf+1)/2) * W/nf * 0.29' as='int((nf+2)/2) * W/nf * 0.29' pd='2*int((nf+1)/2) * (W/nf + 0.29)'
+ ps='2*int((nf+2)/2) * (W/nf + 0.29)' nrd='0.29 / W' nrs='0.29 / W' sa=0 sb=0 sd=0 mult=1 m=1
XM2 net1 net5 VSS VSS sky130_fd_pr__nfet_01v8 L=0.5 W=20 nf=1 ad='int((nf+1)/2) * W/nf * 0.29' as='int((nf+2)/2) * W/nf * 0.29' pd='2*int((nf+1)/2) * (W/nf + 0.29)'
+ ps='2*int((nf+2)/2) * (W/nf + 0.29)' nrd='0.29 / W' nrs='0.29 / W' sa=0 sb=0 sd=0 mult=1 m=1
XM3 net5 net5 VSS VSS sky130_fd_pr__nfet_01v8 L=0.5 W=20 nf=1 ad='int((nf+1)/2) * W/nf * 0.29' as='int((nf+2)/2) * W/nf * 0.29' pd='2*int((nf+1)/2) * (W/nf + 0.29)'
+ ps='2*int((nf+2)/2) * (W/nf + 0.29)' nrd='0.29 / W' nrs='0.29 / W' sa=0 sb=0 sd=0 mult=1 m=1
XM4 ITAIL ITAIL net5 VSS sky130_fd_pr__nfet_01v8 L=0.5 W=20 nf=1 ad='int((nf+1)/2) * W/nf * 0.29' as='int((nf+2)/2) * W/nf * 0.29'
+ pd='2*int((nf+1)/2) * (W/nf + 0.29)' ps='2*int((nf+2)/2) * (W/nf + 0.29)' nrd='0.29 / W' nrs='0.29 / W' sa=0 sb=0 sd=0 mult=1 m=1
XM13 ITAIL_SRC G_source_dn net8 VDD sky130_fd_pr__pfet_01v8 L=0.5 W=5 nf=1 ad='int((nf+1)/2) * W/nf * 0.29' as='int((nf+2)/2) * W/nf * 0.29'
+ pd='2*int((nf+1)/2) * (W/nf + 0.29)' ps='2*int((nf+2)/2) * (W/nf + 0.29)' nrd='0.29 / W' nrs='0.29 / W' sa=0 sb=0 sd=0 mult=1 m=1
XM14 net8 G_source_up VDD VDD sky130_fd_pr__pfet_01v8 L=0.5 W=5 nf=1 ad='int((nf+1)/2) * W/nf * 0.29' as='int((nf+2)/2) * W/nf * 0.29'
+ pd='2*int((nf+1)/2) * (W/nf + 0.29)' ps='2*int((nf+2)/2) * (W/nf + 0.29)' nrd='0.29 / W' nrs='0.29 / W' sa=0 sb=0 sd=0 mult=1 m=1
XM17 G_source_up G_source_up VDD VDD sky130_fd_pr__pfet_01v8 L=0.5 W=5 nf=1 ad='int((nf+1)/2) * W/nf * 0.29' as='int((nf+2)/2) * W/nf * 0.29'
+ pd='2*int((nf+1)/2) * (W/nf + 0.29)' ps='2*int((nf+2)/2) * (W/nf + 0.29)' nrd='0.29 / W' nrs='0.29 / W' sa=0 sb=0 sd=0 mult=1 m=1
XM18 G_source_dn G_source_dn G_source_up VDD sky130_fd_pr__pfet_01v8 L=0.5 W=5 nf=1 ad='int((nf+1)/2) * W/nf * 0.29' as='int((nf+2)/2) * W/nf * 0.29'
+ pd='2*int((nf+1)/2) * (W/nf + 0.29)' ps='2*int((nf+2)/2) * (W/nf + 0.29)' nrd='0.29 / W' nrs='0.29 / W' sa=0 sb=0 sd=0 mult=1 m=1
XM9 G_sink_up net2 net4 VDD sky130_fd_pr__pfet_01v8 L=0.5 W=4 nf=1 ad='int((nf+1)/2) * W/nf * 0.29' as='int((nf+2)/2) * W/nf * 0.29'
+ pd='2*int((nf+1)/2) * (W/nf + 0.29)' ps='2*int((nf+2)/2) * (W/nf + 0.29)' nrd='0.29 / W' nrs='0.29 / W' sa=0 sb=0 sd=0 mult=1 m=1
XM10 net4 net3 VDD VDD sky130_fd_pr__pfet_01v8 L=0.5 W=4 nf=1 ad='int((nf+1)/2) * W/nf * 0.29' as='int((nf+2)/2) * W/nf * 0.29' pd='2*int((nf+1)/2) * (W/nf + 0.29)'
+ ps='2*int((nf+2)/2) * (W/nf + 0.29)' nrd='0.29 / W' nrs='0.29 / W' sa=0 sb=0 sd=0 mult=1 m=1
XM7 net2 net2 net3 VDD sky130_fd_pr__pfet_01v8 L=0.5 W=20 nf=1 ad='int((nf+1)/2) * W/nf * 0.29' as='int((nf+2)/2) * W/nf * 0.29' pd='2*int((nf+1)/2) * (W/nf + 0.29)'
+ ps='2*int((nf+2)/2) * (W/nf + 0.29)' nrd='0.29 / W' nrs='0.29 / W' sa=0 sb=0 sd=0 mult=1 m=1
XM8 net3 net3 VDD VDD sky130_fd_pr__pfet_01v8 L=0.5 W=20 nf=1 ad='int((nf+1)/2) * W/nf * 0.29' as='int((nf+2)/2) * W/nf * 0.29' pd='2*int((nf+1)/2) * (W/nf + 0.29)'
+ ps='2*int((nf+2)/2) * (W/nf + 0.29)' nrd='0.29 / W' nrs='0.29 / W' sa=0 sb=0 sd=0 mult=1 m=1
.ends


* expanding   symbol:  7b_divider.sym # of pins=20
** sym_path: /home/shahid/Sky130Projects/TOP/7b_divider.sym
** sch_path: /home/shahid/Sky130Projects/TOP/7b_divider.sch
.subckt 7b_divider VDD LD D2_7 Q1 D2_6 Q2 D2_5 D2_4 Q3 Q4 D2_3 D2_2 Q5 D2_1 Q6 Q7 CLK VSS OUT1 P2
*.iopin VDD
*.iopin VSS
*.ipin D2_1
*.ipin CLK
*.ipin D2_2
*.ipin D2_3
*.ipin D2_4
*.ipin D2_5
*.ipin D2_6
*.ipin D2_7
*.opin LD
*.opin Q1
*.opin Q2
*.opin Q3
*.opin Q4
*.opin Q5
*.opin Q6
*.opin Q7
*.opin P2
*.opin OUT1
x4 VDD Q2 b D2_3 VSS XNOR
x5 VDD Q1 a D2_2 VSS XNOR
x6 VDD Q3 c D2_4 VSS XNOR
x7 VDD net1 a b c VSS 3_inp_AND
x2 VDD Q4 d D2_5 VSS XNOR
x3 VDD Q5 e D2_6 VSS XNOR
x9 VDD Q6 f D2_7 VSS XNOR
x10 VDD Q7 g D2_1 VSS XNOR
x15 VDD net4 net1 net2 net3 VSS 3_inp_AND
x16 VDD P0 P2 net5 VSS OR
x17 net5 VDD OUT3 VSS div_by_2
x1 LD VDD Q6 Q4 Q2 Q5 Q1 Q3 Q7 D2_7 D2_6 D2_3 D2_5 D2_2 D2_4 D2_1 CLK VSS 7b_counter_new
x11 VDD net2 d e VSS AND
x12 VDD net3 f g VSS AND
x8 CLK VDD LD P0 VSS DFF
x14 VDD Q2 j2 D2_3 VSS XNOR
x18 VDD Q1 j1 D2_2 VSS XNOR
x19 VDD Q3 j3 D2_4 VSS XNOR
x20 VDD Q4 j4 D2_5 VSS XNOR
x21 VDD Q5 j5 D2_6 VSS XNOR
x22 VDD Q6 j6 D2_7 VSS XNOR
x23 VDD Q7 j7 D2_1B VSS XNOR
x24 VDD D2_1 D2_1B VSS inverter
x25 VDD net6 j1 j2 j3 VSS 3_inp_AND
x26 VDD net9 net6 net7 net8 VSS 3_inp_AND
x27 VDD net7 j4 j5 VSS AND
x28 VDD net8 j6 j7 VSS AND
x29 CLK VDD net9 P3 VSS ned_DFF
x30 VDD P0 P3 net10 VSS OR
x31 net10 VDD OUT2 VSS div_by_2
x32 VDD D2_1 OUT3 OUT1 VSS OUT2 MUX
x13 CLK VDD net4 P2 VSS DFF
.ends


* expanding   symbol:  Tappered-Buffer_1.sym # of pins=4
** sym_path: /home/shahid/Sky130Projects/TOP/Tappered-Buffer_1.sym
** sch_path: /home/shahid/Sky130Projects/TOP/Tappered-Buffer_1.sch
.subckt Tappered-Buffer_1 VSS VDD OUT IN
*.iopin VDD
*.iopin VSS
*.ipin IN
*.opin OUT
XM1 net1 IN VDD VDD sky130_fd_pr__pfet_01v8 L=0.5 W=10 nf=1 ad='int((nf+1)/2) * W/nf * 0.29' as='int((nf+2)/2) * W/nf * 0.29' pd='2*int((nf+1)/2) * (W/nf + 0.29)'
+ ps='2*int((nf+2)/2) * (W/nf + 0.29)' nrd='0.29 / W' nrs='0.29 / W' sa=0 sb=0 sd=0 mult=1 m=1
XM2 net2 net1 VDD VDD sky130_fd_pr__pfet_01v8 L=0.5 W=40 nf=1 ad='int((nf+1)/2) * W/nf * 0.29' as='int((nf+2)/2) * W/nf * 0.29' pd='2*int((nf+1)/2) * (W/nf + 0.29)'
+ ps='2*int((nf+2)/2) * (W/nf + 0.29)' nrd='0.29 / W' nrs='0.29 / W' sa=0 sb=0 sd=0 mult=1 m=1
XM3 net3 net2 VDD VDD sky130_fd_pr__pfet_01v8 L=0.5 W=80 nf=1 ad='int((nf+1)/2) * W/nf * 0.29' as='int((nf+2)/2) * W/nf * 0.29' pd='2*int((nf+1)/2) * (W/nf + 0.29)'
+ ps='2*int((nf+2)/2) * (W/nf + 0.29)' nrd='0.29 / W' nrs='0.29 / W' sa=0 sb=0 sd=0 mult=2 m=2
XM5 net1 IN VSS VSS sky130_fd_pr__nfet_01v8 L=0.5 W=5 nf=1 ad='int((nf+1)/2) * W/nf * 0.29' as='int((nf+2)/2) * W/nf * 0.29' pd='2*int((nf+1)/2) * (W/nf + 0.29)'
+ ps='2*int((nf+2)/2) * (W/nf + 0.29)' nrd='0.29 / W' nrs='0.29 / W' sa=0 sb=0 sd=0 mult=1 m=1
XM6 net2 net1 VSS VSS sky130_fd_pr__nfet_01v8 L=0.5 W=20 nf=1 ad='int((nf+1)/2) * W/nf * 0.29' as='int((nf+2)/2) * W/nf * 0.29' pd='2*int((nf+1)/2) * (W/nf + 0.29)'
+ ps='2*int((nf+2)/2) * (W/nf + 0.29)' nrd='0.29 / W' nrs='0.29 / W' sa=0 sb=0 sd=0 mult=1 m=1
XM7 net3 net2 VSS VSS sky130_fd_pr__nfet_01v8 L=0.5 W=80 nf=1 ad='int((nf+1)/2) * W/nf * 0.29' as='int((nf+2)/2) * W/nf * 0.29' pd='2*int((nf+1)/2) * (W/nf + 0.29)'
+ ps='2*int((nf+2)/2) * (W/nf + 0.29)' nrd='0.29 / W' nrs='0.29 / W' sa=0 sb=0 sd=0 mult=1 m=1
XM4 OUT net3 VDD VDD sky130_fd_pr__pfet_01v8 L=0.5 W=80 nf=1 ad='int((nf+1)/2) * W/nf * 0.29' as='int((nf+2)/2) * W/nf * 0.29' pd='2*int((nf+1)/2) * (W/nf + 0.29)'
+ ps='2*int((nf+2)/2) * (W/nf + 0.29)' nrd='0.29 / W' nrs='0.29 / W' sa=0 sb=0 sd=0 mult=4 m=4
XM8 OUT net3 VSS VSS sky130_fd_pr__nfet_01v8 L=0.5 W=80 nf=1 ad='int((nf+1)/2) * W/nf * 0.29' as='int((nf+2)/2) * W/nf * 0.29' pd='2*int((nf+1)/2) * (W/nf + 0.29)'
+ ps='2*int((nf+2)/2) * (W/nf + 0.29)' nrd='0.29 / W' nrs='0.29 / W' sa=0 sb=0 sd=0 mult=2 m=2
.ends


* expanding   symbol:  A_MUX.sym # of pins=6
** sym_path: /home/shahid/Sky130Projects/TOP/A_MUX.sym
** sch_path: /home/shahid/Sky130Projects/TOP/A_MUX.sch
.subckt A_MUX VDD VSS IN1 IN2 SEL OUT
*.iopin VSS
*.ipin IN1
*.ipin IN2
*.ipin SEL
*.opin OUT
*.iopin VDD
x1 OUT VDD VSS IN2 SEL TR_Gate
x2 OUT VDD VSS IN1 net1 TR_Gate
x3 VSS VDD net1 SEL INV_Mux
.ends


* expanding   symbol:  CP.sym # of pins=7
** sym_path: /home/shahid/Sky130Projects/TOP/CP.sym
** sch_path: /home/shahid/Sky130Projects/TOP/CP.sch
.subckt CP VDD ITAIL ITAIL1 VCTRL UP down VSS
*.ipin UP
*.ipin down
*.iopin VCTRL
*.iopin VDD
*.iopin VSS
*.iopin ITAIL1
*.iopin ITAIL
XM8 net2 UP VDD VDD sky130_fd_pr__pfet_01v8 L=0.5 W=1 nf=1 ad='int((nf+1)/2) * W/nf * 0.29' as='int((nf+2)/2) * W/nf * 0.29' pd='2*int((nf+1)/2) * (W/nf + 0.29)'
+ ps='2*int((nf+2)/2) * (W/nf + 0.29)' nrd='0.29 / W' nrs='0.29 / W' sa=0 sb=0 sd=0 mult=1 m=1
XM1 net1 net2 VDD VDD sky130_fd_pr__pfet_01v8 L=0.5 W=3 nf=1 ad='int((nf+1)/2) * W/nf * 0.29' as='int((nf+2)/2) * W/nf * 0.29' pd='2*int((nf+1)/2) * (W/nf + 0.29)'
+ ps='2*int((nf+2)/2) * (W/nf + 0.29)' nrd='0.29 / W' nrs='0.29 / W' sa=0 sb=0 sd=0 mult=1 m=1
XM10 net2 UP VSS VSS sky130_fd_pr__nfet_01v8 L=0.5 W=0.5 nf=1 ad='int((nf+1)/2) * W/nf * 0.29' as='int((nf+2)/2) * W/nf * 0.29' pd='2*int((nf+1)/2) * (W/nf + 0.29)'
+ ps='2*int((nf+2)/2) * (W/nf + 0.29)' nrd='0.29 / W' nrs='0.29 / W' sa=0 sb=0 sd=0 mult=1 m=1
XM2 VCTRL ITAIL net1 VDD sky130_fd_pr__pfet_01v8 L=0.5 W=2.5 nf=1 ad='int((nf+1)/2) * W/nf * 0.29' as='int((nf+2)/2) * W/nf * 0.29'
+ pd='2*int((nf+1)/2) * (W/nf + 0.29)' ps='2*int((nf+2)/2) * (W/nf + 0.29)' nrd='0.29 / W' nrs='0.29 / W' sa=0 sb=0 sd=0 mult=1 m=1
XM3 ITAIL ITAIL VDD VDD sky130_fd_pr__pfet_01v8 L=0.5 W=2.5 nf=1 ad='int((nf+1)/2) * W/nf * 0.29' as='int((nf+2)/2) * W/nf * 0.29'
+ pd='2*int((nf+1)/2) * (W/nf + 0.29)' ps='2*int((nf+2)/2) * (W/nf + 0.29)' nrd='0.29 / W' nrs='0.29 / W' sa=0 sb=0 sd=0 mult=1 m=1
XM5 ITAIL1 ITAIL1 VSS VSS sky130_fd_pr__nfet_01v8 L=0.5 W=1.5 nf=1 ad='int((nf+1)/2) * W/nf * 0.29' as='int((nf+2)/2) * W/nf * 0.29'
+ pd='2*int((nf+1)/2) * (W/nf + 0.29)' ps='2*int((nf+2)/2) * (W/nf + 0.29)' nrd='0.29 / W' nrs='0.29 / W' sa=0 sb=0 sd=0 mult=1 m=1
XM6 VCTRL ITAIL1 net3 VSS sky130_fd_pr__nfet_01v8 L=0.5 W=1.5 nf=1 ad='int((nf+1)/2) * W/nf * 0.29' as='int((nf+2)/2) * W/nf * 0.29'
+ pd='2*int((nf+1)/2) * (W/nf + 0.29)' ps='2*int((nf+2)/2) * (W/nf + 0.29)' nrd='0.29 / W' nrs='0.29 / W' sa=0 sb=0 sd=0 mult=1 m=1
XM4 net3 down VSS VSS sky130_fd_pr__nfet_01v8 L=0.5 W=1.5 nf=1 ad='int((nf+1)/2) * W/nf * 0.29' as='int((nf+2)/2) * W/nf * 0.29' pd='2*int((nf+1)/2) * (W/nf + 0.29)'
+ ps='2*int((nf+2)/2) * (W/nf + 0.29)' nrd='0.29 / W' nrs='0.29 / W' sa=0 sb=0 sd=0 mult=1 m=1
.ends


* expanding   symbol:  VCO_1.sym # of pins=6
** sym_path: /home/shahid/Sky130Projects/TOP/VCO_1.sym
** sch_path: /home/shahid/Sky130Projects/TOP/VCO_1.sch
.subckt VCO_1 VDD VSS VCTRL VCTRL2 OUT OUTB
*.opin OUT
*.iopin VDD
*.iopin VSS
*.opin OUTB
*.ipin VCTRL
*.ipin VCTRL2
x1 VDD VSS net5 net6 VCTRL VCTRL2 net1 net2 DelayCell_1
x2 VDD VSS net7 net8 VCTRL VCTRL2 out1 outb1 DelayCell_1
x3 VSS VDD net7 net1 INV_1
x4 VSS VDD net8 net2 INV_1
x5 VSS VDD net4 out1 INV_1
x6 VSS VDD net5 net4 INV_1
x7 VSS VDD net3 outb1 INV_1
x8 VSS VDD net6 net3 INV_1
x9 VDD VSS net6 net9 net10 net9 D-FF
x10 VDD VSS net10 OUTB OUT OUTB D-FF
.ends


* expanding   symbol:  INV_1.sym # of pins=4
** sym_path: /home/shahid/Sky130Projects/TOP/INV_1.sym
** sch_path: /home/shahid/Sky130Projects/TOP/INV_1.sch
.subckt INV_1 VSS VDD OUT IN
*.iopin VDD
*.iopin VSS
*.ipin IN
*.opin OUT
XM1 OUT IN VSS VSS sky130_fd_pr__nfet_01v8 L=0.5 W=5 nf=1 ad='int((nf+1)/2) * W/nf * 0.29' as='int((nf+2)/2) * W/nf * 0.29' pd='2*int((nf+1)/2) * (W/nf + 0.29)'
+ ps='2*int((nf+2)/2) * (W/nf + 0.29)' nrd='0.29 / W' nrs='0.29 / W' sa=0 sb=0 sd=0 mult=1 m=1
XM2 OUT IN VDD VDD sky130_fd_pr__pfet_01v8 L=0.5 W=10 nf=1 ad='int((nf+1)/2) * W/nf * 0.29' as='int((nf+2)/2) * W/nf * 0.29' pd='2*int((nf+1)/2) * (W/nf + 0.29)'
+ ps='2*int((nf+2)/2) * (W/nf + 0.29)' nrd='0.29 / W' nrs='0.29 / W' sa=0 sb=0 sd=0 mult=1 m=1
.ends


* expanding   symbol:  PFD.sym # of pins=6
** sym_path: /home/shahid/Sky130Projects/TOP/PFD.sym
** sch_path: /home/shahid/Sky130Projects/TOP/PFD.sch
.subckt PFD VDD VSS FDIV FIN UP DOWN
*.ipin FDIV
*.ipin FIN
*.opin UP
*.opin DOWN
*.iopin VSS
*.iopin VDD
XM2 A FIN VDD VDD sky130_fd_pr__pfet_01v8 L=0.5 W=2 nf=1 ad='int((nf+1)/2) * W/nf * 0.29' as='int((nf+2)/2) * W/nf * 0.29' pd='2*int((nf+1)/2) * (W/nf + 0.29)'
+ ps='2*int((nf+2)/2) * (W/nf + 0.29)' nrd='0.29 / W' nrs='0.29 / W' sa=0 sb=0 sd=0 mult=1 m=1
XM3 x1 A VDD VDD sky130_fd_pr__pfet_01v8 L=0.5 W=8 nf=1 ad='int((nf+1)/2) * W/nf * 0.29' as='int((nf+2)/2) * W/nf * 0.29' pd='2*int((nf+1)/2) * (W/nf + 0.29)'
+ ps='2*int((nf+2)/2) * (W/nf + 0.29)' nrd='0.29 / W' nrs='0.29 / W' sa=0 sb=0 sd=0 mult=1 m=1
XM4 x1 x1 net1 VDD sky130_fd_pr__pfet_01v8 L=0.5 W=3 nf=1 ad='int((nf+1)/2) * W/nf * 0.29' as='int((nf+2)/2) * W/nf * 0.29' pd='2*int((nf+1)/2) * (W/nf + 0.29)'
+ ps='2*int((nf+2)/2) * (W/nf + 0.29)' nrd='0.29 / W' nrs='0.29 / W' sa=0 sb=0 sd=0 mult=1 m=1
XM5 net1 x2 VDD VDD sky130_fd_pr__pfet_01v8 L=0.5 W=3 nf=1 ad='int((nf+1)/2) * W/nf * 0.29' as='int((nf+2)/2) * W/nf * 0.29' pd='2*int((nf+1)/2) * (W/nf + 0.29)'
+ ps='2*int((nf+2)/2) * (W/nf + 0.29)' nrd='0.29 / W' nrs='0.29 / W' sa=0 sb=0 sd=0 mult=1 m=1
XM6 x3 x1 VDD VDD sky130_fd_pr__pfet_01v8 L=0.5 W=2 nf=1 ad='int((nf+1)/2) * W/nf * 0.29' as='int((nf+2)/2) * W/nf * 0.29' pd='2*int((nf+1)/2) * (W/nf + 0.29)'
+ ps='2*int((nf+2)/2) * (W/nf + 0.29)' nrd='0.29 / W' nrs='0.29 / W' sa=0 sb=0 sd=0 mult=1 m=1
XM7 A x1b net2 VSS sky130_fd_pr__nfet_01v8 L=0.5 W=0.5 nf=1 ad='int((nf+1)/2) * W/nf * 0.29' as='int((nf+2)/2) * W/nf * 0.29' pd='2*int((nf+1)/2) * (W/nf + 0.29)'
+ ps='2*int((nf+2)/2) * (W/nf + 0.29)' nrd='0.29 / W' nrs='0.29 / W' sa=0 sb=0 sd=0 mult=1 m=1
XM8 net2 x2b net12 VSS sky130_fd_pr__nfet_01v8 L=0.5 W=0.5 nf=1 ad='int((nf+1)/2) * W/nf * 0.29' as='int((nf+2)/2) * W/nf * 0.29' pd='2*int((nf+1)/2) * (W/nf + 0.29)'
+ ps='2*int((nf+2)/2) * (W/nf + 0.29)' nrd='0.29 / W' nrs='0.29 / W' sa=0 sb=0 sd=0 mult=1 m=1
XM9 x1 FIN net3 VSS sky130_fd_pr__nfet_01v8 L=0.5 W=2 nf=1 ad='int((nf+1)/2) * W/nf * 0.29' as='int((nf+2)/2) * W/nf * 0.29' pd='2*int((nf+1)/2) * (W/nf + 0.29)'
+ ps='2*int((nf+2)/2) * (W/nf + 0.29)' nrd='0.29 / W' nrs='0.29 / W' sa=0 sb=0 sd=0 mult=1 m=1
XM10 net3 A VSS VSS sky130_fd_pr__nfet_01v8 L=0.5 W=2 nf=1 ad='int((nf+1)/2) * W/nf * 0.29' as='int((nf+2)/2) * W/nf * 0.29' pd='2*int((nf+1)/2) * (W/nf + 0.29)'
+ ps='2*int((nf+2)/2) * (W/nf + 0.29)' nrd='0.29 / W' nrs='0.29 / W' sa=0 sb=0 sd=0 mult=1 m=1
XM11 x3 x1 net4 VSS sky130_fd_pr__nfet_01v8 L=0.5 W=1.5 nf=1 ad='int((nf+1)/2) * W/nf * 0.29' as='int((nf+2)/2) * W/nf * 0.29' pd='2*int((nf+1)/2) * (W/nf + 0.29)'
+ ps='2*int((nf+2)/2) * (W/nf + 0.29)' nrd='0.29 / W' nrs='0.29 / W' sa=0 sb=0 sd=0 mult=1 m=1
XM12 net4 x1 VSS VSS sky130_fd_pr__nfet_01v8 L=0.5 W=1.5 nf=1 ad='int((nf+1)/2) * W/nf * 0.29' as='int((nf+2)/2) * W/nf * 0.29' pd='2*int((nf+1)/2) * (W/nf + 0.29)'
+ ps='2*int((nf+2)/2) * (W/nf + 0.29)' nrd='0.29 / W' nrs='0.29 / W' sa=0 sb=0 sd=0 mult=1 m=1
XM13 x3 x2b VSS VSS sky130_fd_pr__nfet_01v8 L=0.5 W=2 nf=1 ad='int((nf+1)/2) * W/nf * 0.29' as='int((nf+2)/2) * W/nf * 0.29' pd='2*int((nf+1)/2) * (W/nf + 0.29)'
+ ps='2*int((nf+2)/2) * (W/nf + 0.29)' nrd='0.29 / W' nrs='0.29 / W' sa=0 sb=0 sd=0 mult=1 m=1
x1 VDD VSS x1 x1b PFD_INV
x2 VDD VSS x3 net10 PFD_INV
XM15 B FDIV VDD VDD sky130_fd_pr__pfet_01v8 L=0.5 W=2 nf=1 ad='int((nf+1)/2) * W/nf * 0.29' as='int((nf+2)/2) * W/nf * 0.29' pd='2*int((nf+1)/2) * (W/nf + 0.29)'
+ ps='2*int((nf+2)/2) * (W/nf + 0.29)' nrd='0.29 / W' nrs='0.29 / W' sa=0 sb=0 sd=0 mult=1 m=1
XM16 x2 B VDD VDD sky130_fd_pr__pfet_01v8 L=0.5 W=8 nf=1 ad='int((nf+1)/2) * W/nf * 0.29' as='int((nf+2)/2) * W/nf * 0.29' pd='2*int((nf+1)/2) * (W/nf + 0.29)'
+ ps='2*int((nf+2)/2) * (W/nf + 0.29)' nrd='0.29 / W' nrs='0.29 / W' sa=0 sb=0 sd=0 mult=1 m=1
XM17 x2 x2 net5 VDD sky130_fd_pr__pfet_01v8 L=0.5 W=3 nf=1 ad='int((nf+1)/2) * W/nf * 0.29' as='int((nf+2)/2) * W/nf * 0.29' pd='2*int((nf+1)/2) * (W/nf + 0.29)'
+ ps='2*int((nf+2)/2) * (W/nf + 0.29)' nrd='0.29 / W' nrs='0.29 / W' sa=0 sb=0 sd=0 mult=1 m=1
XM18 net5 x1 VDD VDD sky130_fd_pr__pfet_01v8 L=0.5 W=3 nf=1 ad='int((nf+1)/2) * W/nf * 0.29' as='int((nf+2)/2) * W/nf * 0.29' pd='2*int((nf+1)/2) * (W/nf + 0.29)'
+ ps='2*int((nf+2)/2) * (W/nf + 0.29)' nrd='0.29 / W' nrs='0.29 / W' sa=0 sb=0 sd=0 mult=1 m=1
XM19 x4 x2 VDD VDD sky130_fd_pr__pfet_01v8 L=0.5 W=2 nf=1 ad='int((nf+1)/2) * W/nf * 0.29' as='int((nf+2)/2) * W/nf * 0.29' pd='2*int((nf+1)/2) * (W/nf + 0.29)'
+ ps='2*int((nf+2)/2) * (W/nf + 0.29)' nrd='0.29 / W' nrs='0.29 / W' sa=0 sb=0 sd=0 mult=1 m=1
XM20 B x2b net6 VSS sky130_fd_pr__nfet_01v8 L=0.5 W=0.5 nf=1 ad='int((nf+1)/2) * W/nf * 0.29' as='int((nf+2)/2) * W/nf * 0.29' pd='2*int((nf+1)/2) * (W/nf + 0.29)'
+ ps='2*int((nf+2)/2) * (W/nf + 0.29)' nrd='0.29 / W' nrs='0.29 / W' sa=0 sb=0 sd=0 mult=1 m=1
XM21 net6 x1b net11 VSS sky130_fd_pr__nfet_01v8 L=0.5 W=0.5 nf=1 ad='int((nf+1)/2) * W/nf * 0.29' as='int((nf+2)/2) * W/nf * 0.29'
+ pd='2*int((nf+1)/2) * (W/nf + 0.29)' ps='2*int((nf+2)/2) * (W/nf + 0.29)' nrd='0.29 / W' nrs='0.29 / W' sa=0 sb=0 sd=0 mult=1 m=1
XM22 x2 FDIV net8 VSS sky130_fd_pr__nfet_01v8 L=0.5 W=2 nf=1 ad='int((nf+1)/2) * W/nf * 0.29' as='int((nf+2)/2) * W/nf * 0.29' pd='2*int((nf+1)/2) * (W/nf + 0.29)'
+ ps='2*int((nf+2)/2) * (W/nf + 0.29)' nrd='0.29 / W' nrs='0.29 / W' sa=0 sb=0 sd=0 mult=1 m=1
XM23 net8 B VSS VSS sky130_fd_pr__nfet_01v8 L=0.5 W=2 nf=1 ad='int((nf+1)/2) * W/nf * 0.29' as='int((nf+2)/2) * W/nf * 0.29' pd='2*int((nf+1)/2) * (W/nf + 0.29)'
+ ps='2*int((nf+2)/2) * (W/nf + 0.29)' nrd='0.29 / W' nrs='0.29 / W' sa=0 sb=0 sd=0 mult=1 m=1
XM24 x4 x2 net7 VSS sky130_fd_pr__nfet_01v8 L=0.5 W=1.5 nf=1 ad='int((nf+1)/2) * W/nf * 0.29' as='int((nf+2)/2) * W/nf * 0.29' pd='2*int((nf+1)/2) * (W/nf + 0.29)'
+ ps='2*int((nf+2)/2) * (W/nf + 0.29)' nrd='0.29 / W' nrs='0.29 / W' sa=0 sb=0 sd=0 mult=1 m=1
XM25 net7 x2 VSS VSS sky130_fd_pr__nfet_01v8 L=0.5 W=1.5 nf=1 ad='int((nf+1)/2) * W/nf * 0.29' as='int((nf+2)/2) * W/nf * 0.29' pd='2*int((nf+1)/2) * (W/nf + 0.29)'
+ ps='2*int((nf+2)/2) * (W/nf + 0.29)' nrd='0.29 / W' nrs='0.29 / W' sa=0 sb=0 sd=0 mult=1 m=1
XM26 x4 x1b VSS VSS sky130_fd_pr__nfet_01v8 L=0.5 W=2 nf=1 ad='int((nf+1)/2) * W/nf * 0.29' as='int((nf+2)/2) * W/nf * 0.29' pd='2*int((nf+1)/2) * (W/nf + 0.29)'
+ ps='2*int((nf+2)/2) * (W/nf + 0.29)' nrd='0.29 / W' nrs='0.29 / W' sa=0 sb=0 sd=0 mult=1 m=1
x6 VDD VSS net9 DOWN PFD_INV
x5 VDD VSS x4 net9 PFD_INV
x4 VDD VSS x2 x2b PFD_INV
x3 VDD VSS net10 UP PFD_INV
XM1 net11 FDIV VSS VSS sky130_fd_pr__nfet_01v8 L=0.5 W=2 nf=1 ad='int((nf+1)/2) * W/nf * 0.29' as='int((nf+2)/2) * W/nf * 0.29' pd='2*int((nf+1)/2) * (W/nf + 0.29)'
+ ps='2*int((nf+2)/2) * (W/nf + 0.29)' nrd='0.29 / W' nrs='0.29 / W' sa=0 sb=0 sd=0 mult=1 m=1
XM14 net12 FIN VSS VSS sky130_fd_pr__nfet_01v8 L=0.5 W=2 nf=1 ad='int((nf+1)/2) * W/nf * 0.29' as='int((nf+2)/2) * W/nf * 0.29' pd='2*int((nf+1)/2) * (W/nf + 0.29)'
+ ps='2*int((nf+2)/2) * (W/nf + 0.29)' nrd='0.29 / W' nrs='0.29 / W' sa=0 sb=0 sd=0 mult=1 m=1
.ends


* expanding   symbol:  XNOR.sym # of pins=5
** sym_path: /home/shahid/Sky130Projects/TOP/XNOR.sym
** sch_path: /home/shahid/Sky130Projects/TOP/XNOR.sch
.subckt XNOR VDD A OUT B VSS
*.iopin VDD
*.iopin VSS
*.ipin A
*.ipin B
*.opin OUT
x1 VDD A A_bar VSS inverter
x2 VDD B B_bar VSS inverter
XM5 net1 A VDD VDD sky130_fd_pr__pfet_01v8 L=0.5 W=2 nf=1 ad='int((nf+1)/2) * W/nf * 0.29' as='int((nf+2)/2) * W/nf * 0.29' pd='2*int((nf+1)/2) * (W/nf + 0.29)'
+ ps='2*int((nf+2)/2) * (W/nf + 0.29)' nrd='0.29 / W' nrs='0.29 / W' sa=0 sb=0 sd=0 mult=1 m=1
XM2 OUT A net3 VSS sky130_fd_pr__nfet_01v8 L=0.5 W=1 nf=1 ad='int((nf+1)/2) * W/nf * 0.29' as='int((nf+2)/2) * W/nf * 0.29' pd='2*int((nf+1)/2) * (W/nf + 0.29)'
+ ps='2*int((nf+2)/2) * (W/nf + 0.29)' nrd='0.29 / W' nrs='0.29 / W' sa=0 sb=0 sd=0 mult=1 m=1
XM1 OUT B net1 VDD sky130_fd_pr__pfet_01v8 L=0.5 W=2 nf=1 ad='int((nf+1)/2) * W/nf * 0.29' as='int((nf+2)/2) * W/nf * 0.29' pd='2*int((nf+1)/2) * (W/nf + 0.29)'
+ ps='2*int((nf+2)/2) * (W/nf + 0.29)' nrd='0.29 / W' nrs='0.29 / W' sa=0 sb=0 sd=0 mult=1 m=1
XM3 OUT B_bar net2 VDD sky130_fd_pr__pfet_01v8 L=0.5 W=2 nf=1 ad='int((nf+1)/2) * W/nf * 0.29' as='int((nf+2)/2) * W/nf * 0.29' pd='2*int((nf+1)/2) * (W/nf + 0.29)'
+ ps='2*int((nf+2)/2) * (W/nf + 0.29)' nrd='0.29 / W' nrs='0.29 / W' sa=0 sb=0 sd=0 mult=1 m=1
XM4 net2 A_bar VDD VDD sky130_fd_pr__pfet_01v8 L=0.5 W=2 nf=1 ad='int((nf+1)/2) * W/nf * 0.29' as='int((nf+2)/2) * W/nf * 0.29' pd='2*int((nf+1)/2) * (W/nf + 0.29)'
+ ps='2*int((nf+2)/2) * (W/nf + 0.29)' nrd='0.29 / W' nrs='0.29 / W' sa=0 sb=0 sd=0 mult=1 m=1
XM6 OUT A_bar net4 VSS sky130_fd_pr__nfet_01v8 L=0.5 W=1 nf=1 ad='int((nf+1)/2) * W/nf * 0.29' as='int((nf+2)/2) * W/nf * 0.29' pd='2*int((nf+1)/2) * (W/nf + 0.29)'
+ ps='2*int((nf+2)/2) * (W/nf + 0.29)' nrd='0.29 / W' nrs='0.29 / W' sa=0 sb=0 sd=0 mult=1 m=1
XM7 net4 B VSS VSS sky130_fd_pr__nfet_01v8 L=0.5 W=1 nf=1 ad='int((nf+1)/2) * W/nf * 0.29' as='int((nf+2)/2) * W/nf * 0.29' pd='2*int((nf+1)/2) * (W/nf + 0.29)'
+ ps='2*int((nf+2)/2) * (W/nf + 0.29)' nrd='0.29 / W' nrs='0.29 / W' sa=0 sb=0 sd=0 mult=1 m=1
XM8 net3 B_bar VSS VSS sky130_fd_pr__nfet_01v8 L=0.5 W=1 nf=1 ad='int((nf+1)/2) * W/nf * 0.29' as='int((nf+2)/2) * W/nf * 0.29' pd='2*int((nf+1)/2) * (W/nf + 0.29)'
+ ps='2*int((nf+2)/2) * (W/nf + 0.29)' nrd='0.29 / W' nrs='0.29 / W' sa=0 sb=0 sd=0 mult=1 m=1
.ends


* expanding   symbol:  3_inp_AND.sym # of pins=6
** sym_path: /home/shahid/Sky130Projects/TOP/3_inp_AND.sym
** sch_path: /home/shahid/Sky130Projects/TOP/3_inp_AND.sch
.subckt 3_inp_AND VDD VOUT A B C VSS
*.iopin VSS
*.iopin VDD
*.ipin A
*.ipin B
*.ipin C
*.opin VOUT
XM2 net2 C VSS VSS sky130_fd_pr__nfet_01v8 L=0.5 W=3.5 nf=1 ad='int((nf+1)/2) * W/nf * 0.29' as='int((nf+2)/2) * W/nf * 0.29' pd='2*int((nf+1)/2) * (W/nf + 0.29)'
+ ps='2*int((nf+2)/2) * (W/nf + 0.29)' nrd='0.29 / W' nrs='0.29 / W' sa=0 sb=0 sd=0 mult=1 m=1
XM7 net1 B net2 VSS sky130_fd_pr__nfet_01v8 L=0.5 W=3.5 nf=1 ad='int((nf+1)/2) * W/nf * 0.29' as='int((nf+2)/2) * W/nf * 0.29' pd='2*int((nf+1)/2) * (W/nf + 0.29)'
+ ps='2*int((nf+2)/2) * (W/nf + 0.29)' nrd='0.29 / W' nrs='0.29 / W' sa=0 sb=0 sd=0 mult=1 m=1
XM1 net3 A VDD VDD sky130_fd_pr__pfet_01v8 L=0.5 W=2.5 nf=1 ad='int((nf+1)/2) * W/nf * 0.29' as='int((nf+2)/2) * W/nf * 0.29' pd='2*int((nf+1)/2) * (W/nf + 0.29)'
+ ps='2*int((nf+2)/2) * (W/nf + 0.29)' nrd='0.29 / W' nrs='0.29 / W' sa=0 sb=0 sd=0 mult=1 m=1
XM8 net3 B VDD VDD sky130_fd_pr__pfet_01v8 L=0.5 W=2.5 nf=1 ad='int((nf+1)/2) * W/nf * 0.29' as='int((nf+2)/2) * W/nf * 0.29' pd='2*int((nf+1)/2) * (W/nf + 0.29)'
+ ps='2*int((nf+2)/2) * (W/nf + 0.29)' nrd='0.29 / W' nrs='0.29 / W' sa=0 sb=0 sd=0 mult=1 m=1
XM10 net3 C VDD VDD sky130_fd_pr__pfet_01v8 L=0.5 W=2.5 nf=1 ad='int((nf+1)/2) * W/nf * 0.29' as='int((nf+2)/2) * W/nf * 0.29' pd='2*int((nf+1)/2) * (W/nf + 0.29)'
+ ps='2*int((nf+2)/2) * (W/nf + 0.29)' nrd='0.29 / W' nrs='0.29 / W' sa=0 sb=0 sd=0 mult=1 m=1
XM11 VOUT net3 VDD VDD sky130_fd_pr__pfet_01v8 L=0.5 W=2 nf=1 ad='int((nf+1)/2) * W/nf * 0.29' as='int((nf+2)/2) * W/nf * 0.29' pd='2*int((nf+1)/2) * (W/nf + 0.29)'
+ ps='2*int((nf+2)/2) * (W/nf + 0.29)' nrd='0.29 / W' nrs='0.29 / W' sa=0 sb=0 sd=0 mult=1 m=1
XM12 net3 A net1 VSS sky130_fd_pr__nfet_01v8 L=0.5 W=3.5 nf=1 ad='int((nf+1)/2) * W/nf * 0.29' as='int((nf+2)/2) * W/nf * 0.29' pd='2*int((nf+1)/2) * (W/nf + 0.29)'
+ ps='2*int((nf+2)/2) * (W/nf + 0.29)' nrd='0.29 / W' nrs='0.29 / W' sa=0 sb=0 sd=0 mult=1 m=1
XM13 VOUT net3 VSS VSS sky130_fd_pr__nfet_01v8 L=0.5 W=1 nf=1 ad='int((nf+1)/2) * W/nf * 0.29' as='int((nf+2)/2) * W/nf * 0.29' pd='2*int((nf+1)/2) * (W/nf + 0.29)'
+ ps='2*int((nf+2)/2) * (W/nf + 0.29)' nrd='0.29 / W' nrs='0.29 / W' sa=0 sb=0 sd=0 mult=1 m=1
XM14 VOUT VOUT VOUT VDD sky130_fd_pr__pfet_01v8 L=0.5 W=1 nf=1 ad='int((nf+1)/2) * W/nf * 0.29' as='int((nf+2)/2) * W/nf * 0.29' pd='2*int((nf+1)/2) * (W/nf + 0.29)'
+ ps='2*int((nf+2)/2) * (W/nf + 0.29)' nrd='0.29 / W' nrs='0.29 / W' sa=0 sb=0 sd=0 mult=1 m=1
XM15 VDD VDD VDD VDD sky130_fd_pr__pfet_01v8 L=0.5 W=1 nf=1 ad='int((nf+1)/2) * W/nf * 0.29' as='int((nf+2)/2) * W/nf * 0.29' pd='2*int((nf+1)/2) * (W/nf + 0.29)'
+ ps='2*int((nf+2)/2) * (W/nf + 0.29)' nrd='0.29 / W' nrs='0.29 / W' sa=0 sb=0 sd=0 mult=1 m=1
.ends


* expanding   symbol:  OR.sym # of pins=5
** sym_path: /home/shahid/Sky130Projects/TOP/OR.sym
** sch_path: /home/shahid/Sky130Projects/TOP/OR.sch
.subckt OR VDD A B VOUT VSS
*.iopin VSS
*.iopin VDD
*.ipin A
*.ipin B
*.opin VOUT
XM1 net2 A VDD VDD sky130_fd_pr__pfet_01v8 L=0.5 W=6 nf=1 ad='int((nf+1)/2) * W/nf * 0.29' as='int((nf+2)/2) * W/nf * 0.29' pd='2*int((nf+1)/2) * (W/nf + 0.29)'